Version 4
SHEET 1 996 680
WIRE 304 -144 64 -144
WIRE 464 -144 304 -144
WIRE 752 -144 464 -144
WIRE 976 -144 752 -144
WIRE 752 -80 752 -144
WIRE 976 -32 976 -144
WIRE 752 16 752 0
WIRE 752 32 752 16
WIRE 64 112 64 -144
WIRE 464 144 464 -144
WIRE 752 160 752 112
WIRE 976 160 976 32
WIRE 976 160 752 160
WIRE 64 192 64 176
WIRE 400 192 384 192
WIRE 752 192 752 160
WIRE 304 256 256 256
WIRE 384 256 384 192
WIRE 464 272 464 240
WIRE 624 272 464 272
WIRE 256 288 256 256
WIRE 464 336 464 272
WIRE 384 384 384 256
WIRE 400 384 384 384
WIRE 64 512 64 192
WIRE 256 512 256 368
WIRE 256 512 64 512
WIRE 464 512 464 432
WIRE 464 512 256 512
WIRE 752 512 752 288
WIRE 752 512 464 512
FLAG 752 512 0
FLAG 304 -144 Vcc
FLAG 752 16 L
FLAG 752 160 Drain
FLAG 704 272 Gate
SYMBOL voltage 64 96 R0
WINDOW 123 0 0 Left 0
WINDOW 39 0 0 Left 0
SYMATTR InstName V2
SYMATTR Value 25
SYMBOL voltage 256 272 R0
WINDOW 3 -117 309 Left 2
WINDOW 123 0 0 Left 0
WINDOW 39 0 0 Left 0
SYMATTR InstName V1
SYMATTR Value PULSE(0 15 0 .0000000001 .0000000001 5u 10u)
SYMBOL res 720 256 R90
WINDOW 0 0 56 VBottom 2
WINDOW 3 32 56 VTop 2
SYMATTR InstName R1
SYMATTR Value 100
SYMBOL npn 400 144 R0
SYMATTR InstName Q1
SYMATTR Value BC337-25
SYMBOL pnp 400 432 M180
SYMATTR InstName Q2
SYMATTR Value BC557B
SYMBOL res 768 16 R180
WINDOW 0 36 76 Left 2
WINDOW 3 36 40 Left 2
SYMATTR InstName R2
SYMATTR Value 150
SYMBOL res 288 272 R270
WINDOW 0 32 56 VTop 2
WINDOW 3 0 56 VBottom 2
SYMATTR InstName R3
SYMATTR Value 1k
SYMBOL nmos 704 192 R0
SYMATTR InstName M1
SYMATTR Value IRF530
SYMBOL ind 736 16 R0
SYMATTR InstName L1
SYMATTR Value 220µ
SYMBOL diode 992 32 R180
WINDOW 0 24 64 Left 2
WINDOW 3 24 0 Left 2
SYMATTR InstName D1
SYMATTR Value MUR460
TEXT -34 546 Left 2 !.tran 0 .0001 0 1n
