Version 4
SHEET 1 880 680
WIRE 208 48 48 48
WIRE 304 48 288 48
WIRE 336 48 304 48
WIRE 464 48 400 48
WIRE 640 48 464 48
WIRE 48 64 48 48
WIRE 464 112 464 48
WIRE 640 112 640 48
WIRE 304 128 304 48
WIRE 48 176 48 144
WIRE 48 272 48 256
WIRE 256 272 48 272
WIRE 304 272 304 208
WIRE 304 272 256 272
WIRE 464 272 464 176
WIRE 464 272 304 272
WIRE 640 272 640 192
WIRE 640 272 464 272
WIRE 48 288 48 272
WIRE 640 288 640 272
FLAG 48 288 0
FLAG 640 288 0
FLAG 256 144 0
SYMBOL voltage 48 160 R0
SYMATTR InstName source
SYMATTR Value 9
SYMBOL voltage 48 48 R0
WINDOW 123 0 0 Left 2
WINDOW 39 0 0 Left 2
SYMATTR InstName ripple
SYMBOL ind 192 64 R270
WINDOW 0 32 56 VTop 2
WINDOW 3 5 56 VBottom 2
SYMATTR InstName L1
SYMBOL cap 448 112 R0
SYMATTR InstName C1
SYMBOL res 624 96 R0
SYMATTR InstName R1
SYMATTR Value 450
SYMBOL sw 304 112 R0
SYMATTR InstName S1
SYMATTR Value switch
SYMBOL diode 336 64 R270
WINDOW 0 32 32 VTop 2
WINDOW 3 0 32 VBottom 2
SYMATTR InstName D1
SYMBOL voltage 256 176 R0
WINDOW 123 0 0 Left 2
WINDOW 39 0 0 Left 2
SYMATTR InstName pwm
SYMATTR Value PULSE(1 1 0 0 0 0 1/50k)
